[TITLE]

[OPTIONS]
FLOW_UNITS LPS
INFILTRATION HORTON
FLOW_ROUTING DYNWAVE
LINK_OFFSETS DEPTH
MIN_SLOPE 0
ALLOW_PONDING YES
SKIP_STEADY_STATE YES
START_DATE 12/15/2017
START_TIME 00:00:00
REPORT_START_DATE 12/15/2017
REPORT_START_TIME 00:00:00
END_DATE 12/15/2017
END_TIME 06:00:00
SWEEP_START 01/01
SWEEP_END 12/31
DRY_DAYS 0
REPORT_STEP 00:01:00
WET_STEP 00:01:00
DRY_STEP 06:00:00
ROUTING_STEP 0:00:30
INERTIAL_DAMPING PARTIAL
NORMAL_FLOW_LIMITED BOTH
FORCE_MAIN_EQUATION H-W
VARIABLE_STEP 0.75
LENGTHENING_STEP 0
MIN_SURFAREA 1.14
MAX_TRIALS 8
HEAD_TOLERANCE 0.0015
SYS_FLOW_TOL 5
LAT_FLOW_TOL 5
MINIMUM_STEP 0.5
THREADS 1

[EVAPORATION]
CONSTANT 0.0
DRY_ONLY NO

[RAINGAGES]
1 INTENSITY 0:15 1.0 TIMESERIES 5

[SUBCATCHMENTS]
532 1 196 2.08 80 208 0.1 0
533 1 10 1.46 80 146 0.1 0
534 1 94 1.64 80 164 0.1 0
535 1 212 2 80 200 0.1 0
536 1 38 1.89 80 189 0.1 0
537 1 18 1.84 80 184 0.1 0
538 1 145 1.78 80 178 0.1 0
539 1 340 1.73 80 173 0.1 0
540 1 60 3.2 80 320 0.1 0
541 1 86 3.09 80 309 0.1 0
542 1 106 1.52 80 152 0.1 0
543 1 322 2.53 80 253 0.1 0
544 1 112 5.8 80 580 0.1 0
545 1 327 2.35 80 235 0.1 0
546 1 279 2.31 80 231 0.1 0
547 1 163 2.03 80 203 0.1 0
548 1 210 1.64 80 164 0.1 0
549 1 263 2.31 80 231 0.1 0
550 1 29 2.35 80 235 0.1 0
551 1 168 1.14 80 114 0.1 0
552 1 7 1.18 80 118 0.1 0
553 1 313 1.15 80 115 0.1 0
554 1 102 1.15 80 115 0.1 0
555 1 332 1.15 80 115 0.1 0
556 1 86 1.15 80 115 0.1 0
557 1 201 1.15 80 115 0.1 0
558 1 286 2.28 80 228 0.1 0
559 1 78 1.2 80 120 0.1 0
560 1 27 2.18 80 218 0.1 0
561 1 181 2.31 80 231 0.1 0
562 1 232 1.98 80 198 0.1 0
563 1 124 3.61 80 361 0.1 0
564 1 257 3.36 80 336 0.1 0
565 1 165 3.23 80 323 0.1 0
566 1 176 2.85 80 285 0.1 0
567 1 240 2.55 80 255 0.1 0
568 1 178 2.32 80 232 0.1 0
569 1 307 2.34 80 234 0.1 0
570 1 130 2.02 80 202 0.1 0
571 1 109 3.55 80 355 0.1 0
572 1 200 1.64 80 164 0.1 0
573 1 91 1.62 80 162 0.1 0
574 1 167 1.54 80 154 0.1 0
575 1 291 1.45 80 145 0.1 0
576 1 183 1.38 80 138 0.1 0
577 1 207 1.31 80 131 0.1 0
578 1 326 1.28 80 128 0.1 0
579 1 73 2.41 80 241 0.1 0
580 1 253 1.11 80 111 0.1 0
581 1 215 1.97 80 197 0.1 0
582 1 252 1.78 80 178 0.1 0
583 1 317 3.05 80 305 0.1 0
584 1 96 2.97 80 297 0.1 0
585 1 58 2.64 80 264 0.1 0
586 1 288 1.91 80 191 0.1 0
587 1 63 1.85 80 185 0.1 0
588 1 160 1.9 80 190 0.1 0
589 1 33 1.88 80 188 0.1 0
590 1 328 1.86 80 186 0.1 0
591 1 25 1.91 80 191 0.1 0
592 1 289 1.92 80 192 0.1 0
593 1 164 2 80 200 0.1 0
594 1 188 1.95 80 195 0.1 0
595 1 250 2 80 200 0.1 0
596 1 167 1.98 80 198 0.1 0
597 1 139 1.99 80 199 0.1 0
598 1 324 2.04 80 204 0.1 0
599 1 62 2.09 80 209 0.1 0
600 1 292 2.05 80 205 0.1 0
601 1 150 2.12 80 212 0.1 0
602 1 266 2.08 80 208 0.1 0
603 1 223 2.14 80 214 0.1 0
604 1 275 2.22 80 222 0.1 0
605 1 40 2.02 80 202 0.1 0
606 1 13 2.11 80 211 0.1 0
607 1 173 2.14 80 214 0.1 0
608 1 282 2.75 80 275 0.1 0
609 1 138 2.78 80 278 0.1 0
610 1 56 2.15 80 215 0.1 0
611 1 9 2.14 80 214 0.1 0
612 1 156 2.31 80 231 0.1 0
613 1 134 1.82 80 182 0.1 0
614 1 50 2.9 80 290 0.1 0
615 1 221 3.6 80 360 0.1 0
616 1 103 1.84 80 184 0.1 0
617 1 137 1.79 80 179 0.1 0
618 1 6 1.81 80 181 0.1 0
619 1 245 1.8 80 180 0.1 0
620 1 307 1.78 80 178 0.1 0
621 1 66 1.82 80 182 0.1 0
622 1 279 1.79 80 179 0.1 0
623 1 330 1.81 80 181 0.1 0
624 1 1 1.82 80 182 0.1 0
625 1 99 1.81 80 181 0.1 0
626 1 199 1.8 80 180 0.1 0
627 1 65 1.81 80 181 0.1 0
628 1 273 1.8 80 180 0.1 0
629 1 266 1.85 80 185 0.1 0
630 1 336 1.77 80 177 0.1 0
631 1 132 1.83 80 183 0.1 0
632 1 276 1.8 80 180 0.1 0
633 1 111 1.93 80 193 0.1 0
634 1 72 1.78 80 178 0.1 0
635 1 190 1.78 80 178 0.1 0
636 1 302 1.72 80 172 0.1 0
637 1 210 1.92 80 192 0.1 0
638 1 202 2.88 80 288 0.1 0
639 1 320 2.26 80 226 0.1 0
640 1 264 1.84 80 184 0.1 0
641 1 92 3.14 80 314 0.1 0
642 1 169 1.76 80 176 0.1 0
643 1 140 1.78 80 178 0.1 0
644 1 175 1.78 80 178 0.1 0
645 1 195 1.74 80 174 0.1 0
646 1 83 1.74 80 174 0.1 0
647 1 187 1.76 80 176 0.1 0
648 1 267 1.77 80 177 0.1 0
649 1 298 1.75 80 175 0.1 0
650 1 21 1.73 80 173 0.1 0
651 1 222 1.77 80 177 0.1 0
652 1 314 1.75 80 175 0.1 0
653 1 2 1.75 80 175 0.1 0
654 1 217 1.75 80 175 0.1 0
655 1 337 1.75 80 175 0.1 0
656 1 9 1.75 80 175 0.1 0
657 1 330 1.75 80 175 0.1 0
658 1 310 1.75 80 175 0.1 0
659 1 100 1.75 80 175 0.1 0
660 1 339 1.75 80 175 0.1 0
661 1 249 1.79 80 179 0.1 0
662 1 316 2.68 80 268 0.1 0
663 1 77 1.79 80 179 0.1 0
664 1 128 8.4 80 840 0.1 0
665 1 337 7.6 80 760 0.1 0
666 1 95 6 80 600 0.1 0
667 1 304 3.19 80 319 0.1 0
668 1 89 2.62 80 262 0.1 0
669 1 265 2.69 80 269 0.1 0
670 1 87 2.63 80 263 0.1 0
671 1 321 2.64 80 264 0.1 0
672 1 241 4 80 400 0.1 0
673 1 12 3.42 80 342 0.1 0
674 1 236 5 80 500 0.1 0
675 1 43 4.7 80 470 0.1 0
676 1 56 4.55 80 455 0.1 0
677 1 219 4 80 400 0.1 0
678 1 93 4.1 80 410 0.1 0
679 1 31 3.52 80 352 0.1 0
680 1 160 1.5 80 150 0.1 0
681 1 179 2.7 80 270 0.1 0
682 1 287 2.19 80 219 0.1 0
683 1 185 2.21 80 221 0.1 0
684 1 161 3.54 80 354 0.1 0
685 1 39 3.38 80 338 0.1 0
686 1 233 4.26 80 426 0.1 0
687 1 220 18 20 1800 0.1 0
688 1 15 1.98 80 198 0.1 0
689 1 281 1.88 80 188 0.1 0
690 1 53 4.66 80 466 0.1 0
691 1 297 5.92 80 592 0.1 0
692 1 129 3.3 80 330 0.1 0
693 1 255 3.37 80 337 0.1 0
694 1 218 6.1 80 610 0.1 0
695 1 234 1.34 80 134 0.1 0
696 1 11 1.82 80 182 0.1 0
697 1 243 2.12 80 212 0.1 0
698 1 51 3.69 80 369 0.1 0
699 1 141 2.9 80 290 0.1 0
700 1 64 3.66 80 366 0.1 0
701 1 206 2.74 80 274 0.1 0
702 1 84 1.65 80 165 0.1 0
703 1 152 2.6 80 260 0.1 0
704 1 189 2.7 80 270 0.1 0
705 1 89 1.42 80 142 0.1 0
706 1 260 1.16 80 116 0.1 0
707 1 182 2.38 80 238 0.1 0
708 1 276 3.26 80 326 0.1 0
709 1 54 1.56 80 156 0.1 0
710 1 335 1 80 100 0.1 0
711 1 98 0.85 80 85 0.1 0
712 1 26 2.48 80 248 0.1 0
713 1 37 1 80 100 0.1 0
714 1 201 1 80 100 0.1 0
715 1 291 1 80 100 0.1 0
716 1 20 1 80 100 0.1 0
717 1 113 1 80 100 0.1 0
718 1 67 1.5 80 150 0.1 0
719 1 68 1.5 80 150 0.1 0
720 1 315 1.5 80 150 0.1 0
721 1 308 1.5 80 150 0.1 0
722 1 51 1.5 80 150 0.1 0
723 1 270 1.5 80 150 0.1 0
724 1 311 1.5 80 150 0.1 0
725 1 3 1.5 80 150 0.1 0
726 1 305 1.5 80 150 0.1 0
727 1 128 1.5 80 150 0.1 0
728 1 147 1.5 80 150 0.1 0
729 1 231 1.5 80 150 0.1 0
730 1 71 1.5 80 150 0.1 0
731 1 124 1.5 80 150 0.1 0
732 1 135 1.5 80 150 0.1 0
733 1 142 1.5 80 150 0.1 0
734 1 61 1.5 80 150 0.1 0
735 1 287 1.5 80 150 0.1 0
736 1 46 1.5 80 150 0.1 0
737 1 152 1.5 80 150 0.1 0
738 1 242 1.5 80 150 0.1 0
739 1 115 1.5 80 150 0.1 0
740 1 325 1.5 80 150 0.1 0
741 1 296 1.5 80 150 0.1 0
742 1 213 1.5 80 150 0.1 0
743 1 162 1.5 80 150 0.1 0
744 1 203 1 80 100 0.1 0
745 1 171 1.5 80 150 0.1 0
746 1 90 1.5 80 150 0.1 0
747 1 123 2 80 200 0.1 0

[SUBAREAS]
532 0.015 0.24 1.5 8 25 OUTLET
533 0.015 0.24 1.5 8 25 OUTLET
534 0.015 0.24 1.5 8 25 OUTLET
535 0.015 0.24 1.5 8 25 OUTLET
536 0.015 0.24 1.5 8 25 OUTLET
537 0.015 0.24 1.5 8 25 OUTLET
538 0.015 0.24 1.5 8 25 OUTLET
539 0.015 0.24 1.5 8 25 OUTLET
540 0.015 0.24 1.5 8 25 OUTLET
541 0.015 0.24 1.5 8 25 OUTLET
542 0.015 0.24 1.5 8 25 OUTLET
543 0.015 0.24 1.5 8 25 OUTLET
544 0.015 0.24 1.5 8 25 OUTLET
545 0.015 0.24 1.5 8 25 OUTLET
546 0.015 0.24 1.5 8 25 OUTLET
547 0.015 0.24 1.5 8 25 OUTLET
548 0.015 0.24 1.5 8 25 OUTLET
549 0.015 0.24 1.5 8 25 OUTLET
550 0.015 0.24 1.5 8 25 OUTLET
551 0.015 0.24 1.5 8 25 OUTLET
552 0.015 0.24 1.5 8 25 OUTLET
553 0.015 0.24 1.5 8 25 OUTLET
554 0.015 0.24 1.5 8 25 OUTLET
555 0.015 0.24 1.5 8 25 OUTLET
556 0.015 0.24 1.5 8 25 OUTLET
557 0.015 0.24 1.5 8 25 OUTLET
558 0.015 0.24 1.5 8 25 OUTLET
559 0.015 0.24 1.5 8 25 OUTLET
560 0.015 0.24 1.5 8 25 OUTLET
561 0.015 0.24 1.5 8 25 OUTLET
562 0.015 0.24 1.5 8 25 OUTLET
563 0.015 0.24 1.5 8 25 OUTLET
564 0.015 0.24 1.5 8 25 OUTLET
565 0.015 0.24 1.5 8 25 OUTLET
566 0.015 0.24 1.5 8 25 OUTLET
567 0.015 0.24 1.5 8 25 OUTLET
568 0.015 0.24 1.5 8 25 OUTLET
569 0.015 0.24 1.5 8 25 OUTLET
570 0.015 0.24 1.5 8 25 OUTLET
571 0.015 0.24 1.5 8 25 OUTLET
572 0.015 0.24 1.5 8 25 OUTLET
573 0.015 0.24 1.5 8 25 OUTLET
574 0.015 0.24 1.5 8 25 OUTLET
575 0.015 0.24 1.5 8 25 OUTLET
576 0.015 0.24 1.5 8 25 OUTLET
577 0.015 0.24 1.5 8 25 OUTLET
578 0.015 0.24 1.5 8 25 OUTLET
579 0.015 0.24 1.5 8 25 OUTLET
580 0.015 0.24 1.5 8 25 OUTLET
581 0.015 0.24 1.5 8 25 OUTLET
582 0.015 0.24 1.5 8 25 OUTLET
583 0.015 0.24 1.5 8 25 OUTLET
584 0.015 0.24 1.5 8 25 OUTLET
585 0.015 0.24 1.5 8 25 OUTLET
586 0.015 0.24 1.5 8 25 OUTLET
587 0.015 0.24 1.5 8 25 OUTLET
588 0.015 0.24 1.5 8 25 OUTLET
589 0.015 0.24 1.5 8 25 OUTLET
590 0.015 0.24 1.5 8 25 OUTLET
591 0.015 0.24 1.5 8 25 OUTLET
592 0.015 0.24 1.5 8 25 OUTLET
593 0.015 0.24 1.5 8 25 OUTLET
594 0.015 0.24 1.5 8 25 OUTLET
595 0.015 0.24 1.5 8 25 OUTLET
596 0.015 0.24 1.5 8 25 OUTLET
597 0.015 0.24 1.5 8 25 OUTLET
598 0.015 0.24 1.5 8 25 OUTLET
599 0.015 0.24 1.5 8 25 OUTLET
600 0.015 0.24 1.5 8 25 OUTLET
601 0.015 0.24 1.5 8 25 OUTLET
602 0.015 0.24 1.5 8 25 OUTLET
603 0.015 0.24 1.5 8 25 OUTLET
604 0.015 0.24 1.5 8 25 OUTLET
605 0.015 0.24 1.5 8 25 OUTLET
606 0.015 0.24 1.5 8 25 OUTLET
607 0.015 0.24 1.5 8 25 OUTLET
608 0.015 0.24 1.5 8 25 OUTLET
609 0.015 0.24 1.5 8 25 OUTLET
610 0.015 0.24 1.5 8 25 OUTLET
611 0.015 0.24 1.5 8 25 OUTLET
612 0.015 0.24 1.5 8 25 OUTLET
613 0.015 0.24 1.5 8 25 OUTLET
614 0.015 0.24 1.5 8 25 OUTLET
615 0.015 0.24 1.5 8 25 OUTLET
616 0.015 0.24 1.5 8 25 OUTLET
617 0.015 0.24 1.5 8 25 OUTLET
618 0.015 0.24 1.5 8 25 OUTLET
619 0.015 0.24 1.5 8 25 OUTLET
620 0.015 0.24 1.5 8 25 OUTLET
621 0.015 0.24 1.5 8 25 OUTLET
622 0.015 0.24 1.5 8 25 OUTLET
623 0.015 0.24 1.5 8 25 OUTLET
624 0.015 0.24 1.5 8 25 OUTLET
625 0.015 0.24 1.5 8 25 OUTLET
626 0.015 0.24 1.5 8 25 OUTLET
627 0.015 0.24 1.5 8 25 OUTLET
628 0.015 0.24 1.5 8 25 OUTLET
629 0.015 0.24 1.5 8 25 OUTLET
630 0.015 0.24 1.5 8 25 OUTLET
631 0.015 0.24 1.5 8 25 OUTLET
632 0.015 0.24 1.5 8 25 OUTLET
633 0.015 0.24 1.5 8 25 OUTLET
634 0.015 0.24 1.5 8 25 OUTLET
635 0.015 0.24 1.5 8 25 OUTLET
636 0.015 0.24 1.5 8 25 OUTLET
637 0.015 0.24 1.5 8 25 OUTLET
638 0.015 0.24 1.5 8 25 OUTLET
639 0.015 0.24 1.5 8 25 OUTLET
640 0.015 0.24 1.5 8 25 OUTLET
641 0.015 0.24 1.5 8 25 OUTLET
642 0.015 0.24 1.5 8 25 OUTLET
643 0.015 0.24 1.5 8 25 OUTLET
644 0.015 0.24 1.5 8 25 OUTLET
645 0.015 0.24 1.5 8 25 OUTLET
646 0.015 0.24 1.5 8 25 OUTLET
647 0.015 0.24 1.5 8 25 OUTLET
648 0.015 0.24 1.5 8 25 OUTLET
649 0.015 0.24 1.5 8 25 OUTLET
650 0.015 0.24 1.5 8 25 OUTLET
651 0.015 0.24 1.5 8 25 OUTLET
652 0.015 0.24 1.5 8 25 OUTLET
653 0.015 0.24 1.5 8 25 OUTLET
654 0.015 0.24 1.5 8 25 OUTLET
655 0.015 0.24 1.5 8 25 OUTLET
656 0.015 0.24 1.5 8 25 OUTLET
657 0.015 0.24 1.5 8 25 OUTLET
658 0.015 0.24 1.5 8 25 OUTLET
659 0.015 0.24 1.5 8 25 OUTLET
660 0.015 0.24 1.5 8 25 OUTLET
661 0.015 0.24 1.5 8 25 OUTLET
662 0.015 0.24 1.5 8 25 OUTLET
663 0.015 0.24 1.5 8 25 OUTLET
664 0.015 0.24 1.5 8 25 OUTLET
665 0.015 0.24 1.5 8 25 OUTLET
666 0.015 0.24 1.5 8 25 OUTLET
667 0.015 0.24 1.5 8 25 OUTLET
668 0.015 0.24 1.5 8 25 OUTLET
669 0.015 0.24 1.5 8 25 OUTLET
670 0.015 0.24 1.5 8 25 OUTLET
671 0.015 0.24 1.5 8 25 OUTLET
672 0.015 0.24 1.5 8 25 OUTLET
673 0.015 0.24 1.5 8 25 OUTLET
674 0.015 0.24 1.5 8 25 OUTLET
675 0.015 0.24 1.5 8 25 OUTLET
676 0.015 0.24 1.5 8 25 OUTLET
677 0.015 0.24 1.5 8 25 OUTLET
678 0.015 0.24 1.5 8 25 OUTLET
679 0.015 0.24 1.5 8 25 OUTLET
680 0.015 0.24 1.5 8 25 OUTLET
681 0.015 0.24 1.5 8 25 OUTLET
682 0.015 0.24 1.5 8 25 OUTLET
683 0.015 0.24 1.5 8 25 OUTLET
684 0.015 0.24 1.5 8 25 OUTLET
685 0.015 0.24 1.5 8 25 OUTLET
686 0.015 0.24 1.5 8 25 OUTLET
687 0.015 0.24 1.5 8 25 OUTLET
688 0.015 0.24 1.5 8 25 OUTLET
689 0.015 0.24 1.5 8 25 OUTLET
690 0.015 0.24 1.5 8 25 OUTLET
691 0.015 0.24 1.5 8 25 OUTLET
692 0.015 0.24 1.5 8 25 OUTLET
693 0.015 0.24 1.5 8 25 OUTLET
694 0.015 0.24 1.5 8 25 OUTLET
695 0.015 0.24 1.5 8 25 OUTLET
696 0.015 0.24 1.5 8 25 OUTLET
697 0.015 0.24 1.5 8 25 OUTLET
698 0.015 0.24 1.5 8 25 OUTLET
699 0.015 0.24 1.5 8 25 OUTLET
700 0.015 0.24 1.5 8 25 OUTLET
701 0.015 0.24 1.5 8 25 OUTLET
702 0.015 0.24 1.5 8 25 OUTLET
703 0.015 0.24 1.5 8 25 OUTLET
704 0.015 0.24 1.5 8 25 OUTLET
705 0.015 0.24 1.5 8 25 OUTLET
706 0.015 0.24 1.5 8 25 OUTLET
707 0.015 0.24 1.5 8 25 OUTLET
708 0.015 0.24 1.5 8 25 OUTLET
709 0.015 0.24 1.5 8 25 OUTLET
710 0.015 0.24 1.5 8 25 OUTLET
711 0.015 0.24 1.5 8 25 OUTLET
712 0.015 0.24 1.5 8 25 OUTLET
713 0.015 0.24 1.5 8 25 OUTLET
714 0.015 0.24 1.5 8 25 OUTLET
715 0.015 0.24 1.5 8 25 OUTLET
716 0.015 0.24 1.5 8 25 OUTLET
717 0.015 0.24 1.5 8 25 OUTLET
718 0.015 0.24 1.5 8 25 OUTLET
719 0.015 0.24 1.5 8 25 OUTLET
720 0.015 0.24 1.5 8 25 OUTLET
721 0.015 0.24 1.5 8 25 OUTLET
722 0.015 0.24 1.5 8 25 OUTLET
723 0.015 0.24 1.5 8 25 OUTLET
724 0.015 0.24 1.5 8 25 OUTLET
725 0.015 0.24 1.5 8 25 OUTLET
726 0.015 0.24 1.5 8 25 OUTLET
727 0.015 0.24 1.5 8 25 OUTLET
728 0.015 0.24 1.5 8 25 OUTLET
729 0.015 0.24 1.5 8 25 OUTLET
730 0.015 0.24 1.5 8 25 OUTLET
731 0.015 0.24 1.5 8 25 OUTLET
732 0.015 0.24 1.5 8 25 OUTLET
733 0.015 0.24 1.5 8 25 OUTLET
734 0.015 0.24 1.5 8 25 OUTLET
735 0.015 0.24 1.5 8 25 OUTLET
736 0.015 0.24 1.5 8 25 OUTLET
737 0.015 0.24 1.5 8 25 OUTLET
738 0.015 0.24 1.5 8 25 OUTLET
739 0.015 0.24 1.5 8 25 OUTLET
740 0.015 0.24 1.5 8 25 OUTLET
741 0.015 0.24 1.5 8 25 OUTLET
742 0.015 0.24 1.5 8 25 OUTLET
743 0.015 0.24 1.5 8 25 OUTLET
744 0.015 0.24 1.5 8 25 OUTLET
745 0.015 0.24 1.5 8 25 OUTLET
746 0.015 0.24 1.5 8 25 OUTLET
747 0.015 0.24 1.5 8 25 OUTLET

[INFILTRATION]
532 3.5 0.5 0.25 7 0
533 3.5 0.5 0.25 7 0
534 3.5 0.5 0.25 7 0
535 3.5 0.5 0.25 7 0
536 3.5 0.5 0.25 7 0
537 3.5 0.5 0.25 7 0
538 3.5 0.5 0.25 7 0
539 3.5 0.5 0.25 7 0
540 3.5 0.5 0.25 7 0
541 3.5 0.5 0.25 7 0
542 3.5 0.5 0.25 7 0
543 3.5 0.5 0.25 7 0
544 3.5 0.5 0.25 7 0
545 3.5 0.5 0.25 7 0
546 3.5 0.5 0.25 7 0
547 3.5 0.5 0.25 7 0
548 3.5 0.5 0.25 7 0
549 3.5 0.5 0.25 7 0
550 3.5 0.5 0.25 7 0
551 3.5 0.5 0.25 7 0
552 3.5 0.5 0.25 7 0
553 3.5 0.5 0.25 7 0
554 3.5 0.5 0.25 7 0
555 3.5 0.5 0.25 7 0
556 3.5 0.5 0.25 7 0
557 3.5 0.5 0.25 7 0
558 3.5 0.5 0.25 7 0
559 3.5 0.5 0.25 7 0
560 3.5 0.5 0.25 7 0
561 3.5 0.5 0.25 7 0
562 3.5 0.5 0.25 7 0
563 3.5 0.5 0.25 7 0
564 3.5 0.5 0.25 7 0
565 3.5 0.5 0.25 7 0
566 3.5 0.5 0.25 7 0
567 3.5 0.5 0.25 7 0
568 3.5 0.5 0.25 7 0
569 3.5 0.5 0.25 7 0
570 3.5 0.5 0.25 7 0
571 3.5 0.5 0.25 7 0
572 3.5 0.5 0.25 7 0
573 3.5 0.5 0.25 7 0
574 3.5 0.5 0.25 7 0
575 3.5 0.5 0.25 7 0
576 3.5 0.5 0.25 7 0
577 3.5 0.5 0.25 7 0
578 3.5 0.5 0.25 7 0
579 3.5 0.5 0.25 7 0
580 3.5 0.5 0.25 7 0
581 3.5 0.5 0.25 7 0
582 3.5 0.5 0.25 7 0
583 3.5 0.5 0.25 7 0
584 3.5 0.5 0.25 7 0
585 3.5 0.5 0.25 7 0
586 3.5 0.5 0.25 7 0
587 3.5 0.5 0.25 7 0
588 3.5 0.5 0.25 7 0
589 3.5 0.5 0.25 7 0
590 3.5 0.5 0.25 7 0
591 3.5 0.5 0.25 7 0
592 3.5 0.5 0.25 7 0
593 3.5 0.5 0.25 7 0
594 3.5 0.5 0.25 7 0
595 3.5 0.5 0.25 7 0
596 3.5 0.5 0.25 7 0
597 3.5 0.5 0.25 7 0
598 3.5 0.5 0.25 7 0
599 3.5 0.5 0.25 7 0
600 3.5 0.5 0.25 7 0
601 3.5 0.5 0.25 7 0
602 3.5 0.5 0.25 7 0
603 3.5 0.5 0.25 7 0
604 3.5 0.5 0.25 7 0
605 3.5 0.5 0.25 7 0
606 3.5 0.5 0.25 7 0
607 3.5 0.5 0.25 7 0
608 3.5 0.5 0.25 7 0
609 3.5 0.5 0.25 7 0
610 3.5 0.5 0.25 7 0
611 3.5 0.5 0.25 7 0
612 3.5 0.5 0.25 7 0
613 3.5 0.5 0.25 7 0
614 3.5 0.5 0.25 7 0
615 3.5 0.5 0.25 7 0
616 3.5 0.5 0.25 7 0
617 3.5 0.5 0.25 7 0
618 3.5 0.5 0.25 7 0
619 3.5 0.5 0.25 7 0
620 3.5 0.5 0.25 7 0
621 3.5 0.5 0.25 7 0
622 3.5 0.5 0.25 7 0
623 3.5 0.5 0.25 7 0
624 3.5 0.5 0.25 7 0
625 3.5 0.5 0.25 7 0
626 3.5 0.5 0.25 7 0
627 3.5 0.5 0.25 7 0
628 3.5 0.5 0.25 7 0
629 3.5 0.5 0.25 7 0
630 3.5 0.5 0.25 7 0
631 3.5 0.5 0.25 7 0
632 3.5 0.5 0.25 7 0
633 3.5 0.5 0.25 7 0
634 3.5 0.5 0.25 7 0
635 3.5 0.5 0.25 7 0
636 3.5 0.5 0.25 7 0
637 3.5 0.5 0.25 7 0
638 3.5 0.5 0.25 7 0
639 3.5 0.5 0.25 7 0
640 3.5 0.5 0.25 7 0
641 3.5 0.5 0.25 7 0
642 3.5 0.5 0.25 7 0
643 3.5 0.5 0.25 7 0
644 3.5 0.5 0.25 7 0
645 3.5 0.5 0.25 7 0
646 3.5 0.5 0.25 7 0
647 3.5 0.5 0.25 7 0
648 3.5 0.5 0.25 7 0
649 3.5 0.5 0.25 7 0
650 3.5 0.5 0.25 7 0
651 3.5 0.5 0.25 7 0
652 3.5 0.5 0.25 7 0
653 3.5 0.5 0.25 7 0
654 3.5 0.5 0.25 7 0
655 3.5 0.5 0.25 7 0
656 3.5 0.5 0.25 7 0
657 3.5 0.5 0.25 7 0
658 3.5 0.5 0.25 7 0
659 3.5 0.5 0.25 7 0
660 3.5 0.5 0.25 7 0
661 3.5 0.5 0.25 7 0
662 3.5 0.5 0.25 7 0
663 3.5 0.5 0.25 7 0
664 3.5 0.5 0.25 7 0
665 3.5 0.5 0.25 7 0
666 3.5 0.5 0.25 7 0
667 3.5 0.5 0.25 7 0
668 3.5 0.5 0.25 7 0
669 3.5 0.5 0.25 7 0
670 3.5 0.5 0.25 7 0
671 3.5 0.5 0.25 7 0
672 3.5 0.5 0.25 7 0
673 3.5 0.5 0.25 7 0
674 3.5 0.5 0.25 7 0
675 3.5 0.5 0.25 7 0
676 3.5 0.5 0.25 7 0
677 3.5 0.5 0.25 7 0
678 3.5 0.5 0.25 7 0
679 3.5 0.5 0.25 7 0
680 3.5 0.5 0.25 7 0
681 3.5 0.5 0.25 7 0
682 3.5 0.5 0.25 7 0
683 3.5 0.5 0.25 7 0
684 3.5 0.5 0.25 7 0
685 3.5 0.5 0.25 7 0
686 3.5 0.5 0.25 7 0
687 3.5 0.5 0.25 7 0
688 3.5 0.5 0.25 7 0
689 3.5 0.5 0.25 7 0
690 3.5 0.5 0.25 7 0
691 3.5 0.5 0.25 7 0
692 3.5 0.5 0.25 7 0
693 3.5 0.5 0.25 7 0
694 3.5 0.5 0.25 7 0
695 3.5 0.5 0.25 7 0
696 3.5 0.5 0.25 7 0
697 3.5 0.5 0.25 7 0
698 3.5 0.5 0.25 7 0
699 3.5 0.5 0.25 7 0
700 3.5 0.5 0.25 7 0
701 3.5 0.5 0.25 7 0
702 3.5 0.5 0.25 7 0
703 3.5 0.5 0.25 7 0
704 3.5 0.5 0.25 7 0
705 3.5 0.5 0.25 7 0
706 3.5 0.5 0.25 7 0
707 3.5 0.5 0.25 7 0
708 3.5 0.5 0.25 7 0
709 3.5 0.5 0.25 7 0
710 3.5 0.5 0.25 7 0
711 3.5 0.5 0.25 7 0
712 3.5 0.5 0.25 7 0
713 3.5 0.5 0.25 7 0
714 3.5 0.5 0.25 7 0
715 3.5 0.5 0.25 7 0
716 3.5 0.5 0.25 7 0
717 3.5 0.5 0.25 7 0
718 3.5 0.5 0.25 7 0
719 3.5 0.5 0.25 7 0
720 3.5 0.5 0.25 7 0
721 3.5 0.5 0.25 7 0
722 3.5 0.5 0.25 7 0
723 3.5 0.5 0.25 7 0
724 3.5 0.5 0.25 7 0
725 3.5 0.5 0.25 7 0
726 3.5 0.5 0.25 7 0
727 3.5 0.5 0.25 7 0
728 3.5 0.5 0.25 7 0
729 3.5 0.5 0.25 7 0
730 3.5 0.5 0.25 7 0
731 3.5 0.5 0.25 7 0
732 3.5 0.5 0.25 7 0
733 3.5 0.5 0.25 7 0
734 3.5 0.5 0.25 7 0
735 3.5 0.5 0.25 7 0
736 3.5 0.5 0.25 7 0
737 3.5 0.5 0.25 7 0
738 3.5 0.5 0.25 7 0
739 3.5 0.5 0.25 7 0
740 3.5 0.5 0.25 7 0
741 3.5 0.5 0.25 7 0
742 3.5 0.5 0.25 7 0
743 3.5 0.5 0.25 7 0
744 3.5 0.5 0.25 7 0
745 0 0 0 0 0
746 0 0 0 0 0
747 0 0 0 0 0

[JUNCTIONS]
1 16.85 1.15 0 0 200
2 15.821 2.179 0 0 200
3 15.935 2.065 0 0 200
4 16.01 1.99 0 0 200
5 16.085 1.915 0 0 200
6 16.235 1.765 0 0 200
7 16.4781 1.5219 0 0 200
8 16.545 1.455 0 0 200
9 16.67 1.33 0 0 200
10 16.85 1.15 0 0 200
11 16.618 1.382 0 0 200
12 16.85 1.15 0 0 200
13 16.618 1.382 0 0 200
14 16.85 1.15 0 0 200
15 16.618 1.382 0 0 200
16 16.85 1.15 0 0 200
17 16.415 1.585 0 0 200
18 16.85 1.15 0 0 200
19 16.386 1.614 0 0 200
20 16.125 1.875 0 0 200
21 16.531 1.469 0 0 200
22 16.125 1.875 0 0 200
23 16.56 1.44 0 0 200
24 16.328 1.672 0 0 200
25 16.56 1.44 0 0 200
26 16.278 1.722 0 0 200
27 16.38 1.62 0 0 200
28 16.328 1.672 0 0 200
29 15.835 2.165 0 0 200
30 14.8865 3.1135 0 0 200
31 15.0225 2.9775 0 0 200
32 15.6545 2.3455 0 0 200
33 15.9365 2.0635 0 0 200
34 16.1975 1.8025 0 0 200
35 15.777 2.223 0 0 200
36 16.2555 1.7445 0 0 200
37 15.814 2.186 0 0 200
38 15.439 2.561 0 0 200
39 16.618 1.382 0 0 200
40 15.8205 2.1795 0 0 200
41 15.342 2.658 0 0 200
42 14.8925 3.1075 0 0 200
43 14.675 3.325 0 0 200
44 13.7755 4.2245 0 0 200
45 15.8551 2.1449 0 0 200
46 16.27 1.73 0 0 200
47 13.6325 4.3675 0 0 200
48 15.386 2.614 0 0 200
49 15.893 2.107 0 0 200
50 16.328 1.672 0 0 200
51 15.3355 2.6645 0 0 200
52 16.133 1.867 0 0 200
53 14.664 3.336 0 0 200
54 13.624 4.376 0 0 200
55 13.56 4.44 0 0 200
56 13.496 4.504 0 0 200
57 11.725 6.275 0 0 200
58 16.85 1.15 0 0 200
59 15.611 2.389 0 0 200
60 16.1 1.9 0 0 200
61 15.7775 2.2225 0 0 200
62 16.235 1.765 0 0 200
63 15.737 2.263 0 0 200
64 15.8645 2.1355 0 0 200
65 15.692 2.308 0 0 200
66 16.322 1.678 0 0 200
67 16.0345 1.9655 0 0 200
68 16.452 1.548 0 0 200
69 16.1125 1.8875 0 0 200
70 16.37 1.63 0 0 200
71 16.235 1.765 0 0 200
72 16.206 1.794 0 0 200
73 15.6275 2.3725 0 0 200
74 16.415 1.585 0 0 200
75 15.437 2.563 0 0 200
76 16.415 1.585 0 0 200
77 15.482 2.518 0 0 200
78 16.6325 1.3675 0 0 200
79 15.5225 2.4775 0 0 200
80 15.195 2.805 0 0 200
81 13.9675 4.0325 0 0 200
82 14.0315 3.9685 0 0 200
83 14.0955 3.9045 0 0 200
84 14.1595 3.8405 0 0 200
85 14.5395 3.4605 0 0 200
86 14.6495 3.3505 0 0 200
87 14.6895 3.3105 0 0 200
88 14.9935 3.0065 0 0 200
89 15.1495 2.8505 0 0 200
90 15.2015 2.7985 0 0 200
91 15.4695 2.5305 0 0 200
92 15.6055 2.3945 0 0 200
93 15.6735 2.3265 0 0 200
94 15.9775 2.0225 0 0 200
95 16.1 1.9 0 0 200
96 15.9725 2.0275 0 0 200
97 15.645 2.355 0 0 200
98 15.5475 2.4525 0 0 200
99 15.45 2.55 0 0 200
100 15.3525 2.6475 0 0 200
101 15.255 2.745 0 0 200
102 15.1575 2.8425 0 0 200
103 15.0825 2.9175 0 0 200
104 15.0075 2.9925 0 0 200
105 14.9325 3.0675 0 0 200
106 14.8575 3.1425 0 0 200
107 14.7825 3.2175 0 0 200
108 14.6975 3.3025 0 0 200
109 14.5675 3.4325 0 0 200
110 15.574 2.426 0 0 200
111 15.774 2.226 0 0 200
112 15.974 2.026 0 0 200
113 16.386 1.614 0 0 200
114 16.734 1.266 0 0 200
115 16.328 1.672 0 0 200
116 16.734 1.266 0 0 200
117 16.2845 1.7155 0 0 200
118 16.734 1.266 0 0 200
119 16.2265 1.7735 0 0 200
120 16.734 1.266 0 0 200
121 16.183 1.817 0 0 200
122 15.5025 2.4975 0 0 200
123 16.85 1.15 0 0 200
124 13.005 4.995 0 0 200
125 13.806 4.194 0 0 200
126 14.006 3.994 0 0 200
127 14.106 3.894 0 0 200
128 14.406 3.594 0 0 200
129 14.606 3.394 0 0 200
130 14.758 3.242 0 0 200
131 14.958 3.042 0 0 200
132 15.11 2.89 0 0 200
133 15.31 2.69 0 0 200
134 15.51 2.49 0 0 200
135 15.872 2.128 0 0 200
136 16.154 1.846 0 0 200
137 16.154 1.846 0 0 200
138 15.0465 2.9535 0 0 200
139 14.9105 3.0895 0 0 200
140 14.7745 3.2255 0 0 200
141 14.6385 3.3615 0 0 200
142 16.009 1.991 0 0 200
143 15.5595 2.4405 0 0 200
144 15.3275 2.6725 0 0 200
145 15.0455 2.9545 0 0 200
146 14.8455 3.1545 0 0 200
147 16.096 1.904 0 0 200
148 15.864 2.136 0 0 200
149 15.632 2.368 0 0 200
150 15.35 2.65 0 0 200
151 15.15 2.85 0 0 200
152 14.95 3.05 0 0 200
153 14.75 3.25 0 0 200
154 14.55 3.45 0 0 200
155 16.125 1.875 0 0 200
156 13.9395 4.0605 0 0 200
157 14.1995 3.8005 0 0 200
158 14.3035 3.6965 0 0 200
159 14.4075 3.5925 0 0 200
160 14.4875 3.5125 0 0 200
161 13.65 4.35 0 0 200
162 14.828 3.172 0 0 200
163 15.06 2.94 0 0 200
164 16.618 1.382 0 0 200
165 16.618 1.382 0 0 200
166 16.618 1.382 0 0 200
167 16.85 1.15 0 0 200
168 16.618 1.382 0 0 200
169 16.336 1.664 0 0 200
170 16.618 1.382 0 0 200
171 16.85 1.15 0 0 200
172 16.618 1.382 0 0 200
173 16.386 1.614 0 0 200
174 16.154 1.846 0 0 200
175 15.922 2.078 0 0 200
176 16.618 1.382 0 0 200
177 14.256 3.744 0 0 200
178 15.3565 2.6435 0 0 200
179 16.618 1.382 0 0 200
180 16.386 1.614 0 0 200
181 16.154 1.846 0 0 200
182 14.283 3.717 0 0 200
183 16.85 1.15 0 0 200
184 16.618 1.382 0 0 200
185 16.618 1.382 0 0 200
186 16.386 1.614 0 0 200
187 16.154 1.846 0 0 200
188 16.3425 1.6575 0 0 200
189 15.7205 2.2795 0 0 200
190 15.5305 2.4695 0 0 200
191 14.295 3.705 0 0 200
192 12.8 5.2 0 0 200
193 13.77 4.23 0 0 200
194 16.444 1.556 0 0 200
195 16.241 1.759 0 0 200
196 16.85 1.15 0 0 200
197 16.386 1.614 0 0 200
198 15.951 2.049 0 0 200
199 15.545 2.455 0 0 200
200 16.415 1.585 0 0 200
201 16.56 1.44 0 0 200
202 16.003 1.997 0 0 200
203 16.531 1.469 0 0 200
204 16.0235 1.9765 0 0 200
205 15.255 2.745 0 0 200
206 14.8715 3.1285 0 0 200
207 16.3425 1.6575 0 0 200
208 16.85 1.15 0 0 200
209 15.893 2.107 0 0 200
210 16.386 1.614 0 0 200
211 15.7335 2.2665 0 0 200
212 14.625 3.375 0 0 200
213 14.095 3.905 0 0 200
214 16.183 1.817 0 0 200
215 15.661 2.339 0 0 200
216 16.85 1.15 0 0 200
217 13.653 4.347 0 0 200
218 13.2655 4.7345 0 0 200
219 12.608 5.392 0 0 200
220 12.0065 5.9935 0 0 200
221 15.4805 2.5195 0 0 200
222 16.375 1.625 0 0 200
223 16.8 1.2 0 0 200
224 15.98 2.02 0 0 200
225 16.212 1.788 0 0 200
226 16.85 1.15 0 0 200
227 16.3135 1.6865 0 0 200
228 15.777 2.223 0 0 200
229 16.212 1.788 0 0 200
230 16.85 1.15 0 0 200
231 16.299 1.701 0 0 200
232 15.748 2.252 0 0 200
233 14.6685 3.3315 0 0 200
234 14.0385 3.9615 0 0 200
235 13.3885 4.6115 0 0 200
236 13.0485 4.9515 0 0 200
237 13.882 4.118 0 0 200
238 13.508 4.492 0 0 200
239 12.751 5.249 0 0 200
240 12.465 5.535 0 0 200
241 15.034 2.966 0 0 200
242 16.2265 1.7735 0 0 200
243 15.603 2.397 0 0 200
244 16.647 1.353 0 0 200
245 14.0915 3.9085 0 0 200
246 15.234 2.766 0 0 200
247 16.3715 1.6285 0 0 200
248 15.411 2.589 0 0 200
249 14.7875 3.2125 0 0 200
250 14.338 3.662 0 0 200
251 15.98 2.02 0 0 200
252 16.3715 1.6285 0 0 200
253 15.611 2.389 0 0 200
254 16.212 1.788 0 0 200
255 16.3715 1.6285 0 0 200
256 15.843 2.157 0 0 200
257 16.27 1.73 0 0 200
258 15.69 2.31 0 0 200
259 16.212 1.788 0 0 200
260 16.3715 1.6285 0 0 200
261 15.893 2.107 0 0 200
262 16.85 1.15 0 0 200
263 15.408 2.592 0 0 200
264 15.93 2.07 0 0 200
265 15.43 2.57 0 0 200
266 15.661 2.339 0 0 200
267 14.901 3.099 0 0 200
268 15.208 2.792 0 0 200
269 16.212 1.788 0 0 200
270 15.298 2.702 0 0 200
271 14.63 3.37 0 0 200
272 14.37 3.63 0 0 200
273 14.11 3.89 0 0 200
274 13.85 4.15 0 0 200
275 15.762 2.238 0 0 200
276 16.032 1.968 0 0 200
277 15.98 2.02 0 0 200
278 15.698 2.302 0 0 200
279 15.198 2.802 0 0 200
280 16.183 1.817 0 0 200
281 14.223 3.777 0 0 200
282 15.69 2.31 0 0 200
283 15.487 2.513 0 0 200
284 16.531 1.469 0 0 200
285 13.714 4.286 0 0 200
286 13.779 4.221 0 0 200
287 13.898 4.102 0 0 200
288 14.028 3.972 0 0 200
289 16.56 1.44 0 0 200
290 14.1965 3.8035 0 0 200
291 13.8565 4.1435 0 0 200
292 13.6825 4.3175 0 0 200
293 12.9575 5.0425 0 0 200
294 14.7765 3.2235 0 0 200
295 16.85 1.15 0 0 200
296 15.1765 2.8235 0 0 200
297 15.355 2.645 0 0 200
298 16.85 1.15 0 0 200
299 15.98 2.02 0 0 200
300 15.748 2.252 0 0 200
301 16.415 1.585 0 0 200
302 14.35 3.65 0 0 200
303 16.85 1.15 0 0 200
304 16.1625 1.8375 0 0 200
305 16.0815 1.9185 0 0 200
306 15.2695 2.7305 0 0 200
307 16.8 1.2 0 0 200
308 15.32685 2.67315 0 0 200
309 16.85 1.15 0 0 200
310 16.8 1.2 0 0 200
311 16.8 1.2 0 0 200
312 16.85 1.15 0 0 200
313 16.8 1.2 0 0 200
314 16.8 1.2 0 0 200
315 16.85 1.15 0 0 200
316 16.8 1.2 0 0 200
317 16.85 1.15 0 0 200
318 16.85 1.15 0 0 200
319 16.85 1.15 0 0 200
320 16.85 1.15 0 0 200
321 16.85 1.15 0 0 200
322 16.85 1.15 0 0 200
323 16.85 1.15 0 0 200
324 16.8 1.2 0 0 200
325 16.85 1.15 0 0 200
326 16.85 1.15 0 0 200
327 16.8 1.2 0 0 200
328 16.8 1.2 0 0 200
329 16.85 1.15 0 0 200
330 16.85 1.15 0 0 200
331 16.85 1.15 0 0 200
332 16.85 1.15 0 0 200
333 16.85 1.15 0 0 200
334 16.85 1.15 0 0 200
335 16.85 1.15 0 0 200
336 16.85 1.15 0 0 200
337 16.67 1.33 0 0 200
338 16.85 1.15 0 0 200
339 16.8 1.2 0 0 200
340 16.67 1.33 0 0 200
344 16.85 1.15 0 0 200
345 16.85 1.15 0 0 200
349 16.85 1.15 0 0 200
z_0871_001_001 16.85 1.15 0 0 200
z_0871_001_002 16.85 1.15 0 0 200
z_0871_001_003 16.85 1.15 0 0 200
z_0871_002_001 16.85 1.15 0 0 200
z_0871_002_002 16.85 1.15 0 0 200
z_0871_002_003 16.85 1.15 0 0 200
z_0871_002_007 16.85 1.15 0 0 200
z_0871_002_009 16.85 1.15 0 0 200
z_0871_002_010 16.85 1.15 0 0 200
z_0871_002_011 16.85 1.15 0 0 200
z_0871_002_015 16.85 1.15 0 0 200
z_0871_002_016 16.85 1.15 0 0 200
z_0871_002_017 16.85 1.15 0 0 200
z_0871_002_018 16.85 1.15 0 0 200
z_0871_002_019 16.85 1.15 0 0 200
z_0871_002_020 16.85 1.15 0 0 200
z_0871_002_026 16.85 1.15 0 0 200
z_0871_002_027 16.85 1.15 0 0 200
z_0871_002_031 16.85 1.15 0 0 200
z_0871_003_001 16.85 1.15 0 0 200
z_0871_003_005 16.85 1.15 0 0 200
z_0871_003_006 16.85 1.15 0 0 200
z_0871_003_007 16.85 1.15 0 0 200
z_0871_003_009 16.85 1.15 0 0 200
z_0871_003_011 16.85 1.15 0 0 200
z_0871_003_012 16.85 1.15 0 0 200
z_0871_003_013 16.85 1.15 0 0 200
z_0871_003_014 16.85 1.15 0 0 200
z_0871_003_015 16.85 1.15 0 0 200
z_0871_003_018 16.85 1.15 0 0 200
z_0871_003_019 16.85 1.15 0 0 200
z_0871_003_020 16.85 1.15 0 0 200
z_0871_003_022 16.85 1.15 0 0 200
z_0871_004_007 16.85 1.15 0 0 200
z_0871_004_009 16.85 1.15 0 0 200
z_0871_004_013 16.85 1.15 0 0 200
z_0871_004_014 16.85 1.15 0 0 200
z_0871_004_015 16.85 1.15 0 0 200
z_0871_004_016 16.85 1.15 0 0 200
z_0871_004_017 16.85 1.15 0 0 200
z_0871_004_018 16.85 1.15 0 0 200
z_0871_004_021 16.85 1.15 0 0 200
z_0871_004_022 16.85 1.15 0 0 200
z_0871_005_001 16.85 1.15 0 0 200
z_0871_005_003 16.85 1.15 0 0 200
z_0871_005_004 16.85 1.15 0 0 200
z_0871_005_005 16.85 1.15 0 0 200
z_0871_005_017 16.85 1.15 0 0 200
z_0871_005_018 16.85 1.15 0 0 200
z_0871_005_022 16.85 1.15 0 0 200
z_0871_005_023 16.85 1.15 0 0 200
z_0871_005_024 16.85 1.15 0 0 200
z_0871_005_026 16.85 1.15 0 0 200
z_0871_006_001 16.85 1.15 0 0 200
z_0871_006_002 16.85 1.15 0 0 200
z_0871_006_004 16.85 1.15 0 0 200
z_0871_006_010 16.85 1.15 0 0 200
z_0871_006_011 16.85 1.15 0 0 200
z_0871_006_013 16.85 1.15 0 0 200
z_0871_006_015 16.85 1.15 0 0 200
z_0871_006_016 16.85 1.15 0 0 200
z_0871_006_018 16.85 1.15 0 0 200
z_0871_006_020 16.85 1.15 0 0 200
z_0871_007_001 16.85 1.15 0 0 200
z_0871_007_002 16.85 1.15 0 0 200
z_0871_007_010 16.85 1.15 0 0 200
z_0871_007_014 16.85 1.15 0 0 200
z_0871_007_019 16.85 1.15 0 0 200
z_0871_007_020 16.85 1.15 0 0 200
z_0871_007_021 16.85 1.15 0 0 200
z_0871_007_022 16.85 1.15 0 0 200
z_0871_007_023 16.85 1.15 0 0 200
z_0871_007_024 16.85 1.15 0 0 200
z_0871_007_025 16.85 1.15 0 0 200
z_0871_007_026 16.85 1.15 0 0 200
z_0871_007_028 16.85 1.15 0 0 200
z_0871_007_029 16.85 1.15 0 0 200
z_0871_007_030 16.85 1.15 0 0 200
z_0871_007_032 16.85 1.15 0 0 200
z_0871_007_033 16.85 1.15 0 0 200
z_0871_007_034 16.85 1.15 0 0 200
z_0871_007_035 16.85 1.15 0 0 200
z_0871_007_036 16.85 1.15 0 0 200
z_0871_007_037 16.85 1.15 0 0 200
z_0871_007_038 16.85 1.15 0 0 200
z_0871_007_040 16.85 1.15 0 0 200
z_0871_007_041 16.85 1.15 0 0 200
z_0871_007_042 16.85 1.15 0 0 200

[OUTFALLS]
341 14.57685 FREE NO
342 13.3075 FREE NO
343 11.285 FREE NO
346 12.6575 FREE NO
347 12.215 FREE NO
348 11.8065 FREE NO
350 12.74 FREE NO

[CONDUITS]
233 308 341 300 0.01 0 0 0 0
112 2 308 197.66 0.01 0 0 0 0
346 z_0871_001_003 2 145 0.01 0 0.6085 0 0
232 307 2 120 0.01 0 0.631 0 0
223 3 2 60 0.01 0 0 0 0
269 340 3 120 0.01 0 0.435 0 0
278 4 3 30 0.01 0 0 0 0
267 339 4 120 0.01 0 0.442 0 0
289 5 4 30 0.01 0 0 0 0
300 6 5 60 0.01 0 0 0 0
266 338 5 120 0.01 0 0.417 0 0
345 z_0871_001_002 6 150 0.01 0 0.18 0 0
344 z_0871_001_001 6 120 0.01 0 0.267 0 0
286 47 342 250 0.01 0 0 0 0
287 48 47 155 0.01 0 1.304 0 0
284 45 47 160 0.01 0 1.8226 0 0
283 44 47 110 0.01 0 0 0 0